14
0.000000 Frame 1
H -1.4596 -0.5037 0.0000
H -0.0843 -1.5912 -0.5557
C -0.7056 -0.6921 -0.8090
H 0.6083 0.8295 0.0339
C 0.2025 0.5291 -0.9724
H 1.8730 1.1831 -2.2155
H 0.9707 -0.2781 -2.8570
C 1.3589 0.2264 -1.9326
H 2.9814 -0.8103 -1.8501
O 2.2551 -0.6293 -1.2429
H -1.9775 -1.6213 -1.9282
O -1.3677 -0.8856 -2.0508
H -0.9923 1.3860 -2.2291
O -0.5200 1.6545 -1.4294
